Real qtdAlgs=5 fixedGeneration=25 with runningAlgorithmIndex=2 run for 8 from 7 
CF; decision=25;fixed=4000;total=100000
Run 7....
HeatExchanger 2 16
Set iterations=1000 popSize=100
Create 0 at 100000
Create 1 at 96000
Create 2 at 92000
Create 3 at 88000
Create 4 at 84000
Create 0 at 80000
Create 1 at 76000
Create 2 at 72000
Create 3 at 68000
Create 4 at 64000
Create 0 at 60000
Create 1 at 56000
Create 2 at 52000
Create 3 at 48000
Create 4 at 44000
Create 0 at 40000
Create 1 at 36000
Create 2 at 32000
Create 3 at 28000
Create 4 at 24000
Create 0 at 20000
Create 1 at 16000
Create 2 at 12000
Create 3 at 8000
Create 4 at 4000
DiskBrakeDesign 2 4
Set iterations=1000 popSize=100
Create 0 at 100000
Create 1 at 96000
Create 2 at 92000
Create 3 at 88000
Create 4 at 84000
Create 0 at 80000
Create 1 at 76000
Create 2 at 72000
Create 3 at 68000
Create 4 at 64000
Create 0 at 60000
Create 1 at 56000
Create 2 at 52000
Create 3 at 48000
Create 4 at 44000
Create 0 at 40000
Create 1 at 36000
Create 2 at 32000
Create 3 at 28000
Create 4 at 24000
Create 0 at 20000
Create 1 at 16000
Create 2 at 12000
Create 3 at 8000
Create 4 at 4000
WeldedBeamDesign 2 4
Set iterations=1000 popSize=100
Create 0 at 100000
Create 1 at 96000
Create 2 at 92000
Create 3 at 88000
Create 4 at 84000
Create 0 at 80000
Create 1 at 76000
Create 2 at 72000
Create 3 at 68000
Create 4 at 64000
Create 0 at 60000
Create 1 at 56000
Create 2 at 52000
Create 3 at 48000
Create 4 at 44000
Create 0 at 40000
Create 1 at 36000
Create 2 at 32000
Create 3 at 28000
Create 4 at 24000
Create 0 at 20000
Create 1 at 16000
Create 2 at 12000
Create 3 at 8000
Create 4 at 4000
HydroDynamics 2 6
Set iterations=1000 popSize=100
Create 0 at 100000
Create 1 at 96000
Create 2 at 92000
Create 3 at 88000
Create 4 at 84000
Create 0 at 80000
Create 1 at 76000
Create 2 at 72000
Create 3 at 68000
Create 4 at 64000
Create 0 at 60000
Create 1 at 56000
Create 2 at 52000
Create 3 at 48000
Create 4 at 44000
Create 0 at 40000
Create 1 at 36000
Create 2 at 32000
Create 3 at 28000
Create 4 at 24000
Create 0 at 20000
Create 1 at 16000
Create 2 at 12000
Create 3 at 8000
Create 4 at 4000
OpticalFilter 2 11
Set iterations=1000 popSize=100
Create 0 at 100000
Create 1 at 96000
Create 2 at 92000
Create 3 at 88000
Create 4 at 84000
Create 0 at 80000
Create 1 at 76000
Create 2 at 72000
Create 3 at 68000
Create 4 at 64000
Create 0 at 60000
Create 1 at 56000
Create 2 at 52000
Create 3 at 48000
Create 4 at 44000
Create 0 at 40000
Create 1 at 36000
Create 2 at 32000
Create 3 at 28000
Create 4 at 24000
Create 0 at 20000
Create 1 at 16000
Create 2 at 12000
Create 3 at 8000
Create 4 at 4000
VibratingPlatformDesign 2 5
Set iterations=1000 popSize=100
Create 0 at 100000
Create 1 at 96000
Create 2 at 92000
Create 3 at 88000
Create 4 at 84000
Create 0 at 80000
Create 1 at 76000
Create 2 at 72000
Create 3 at 68000
Create 4 at 64000
Create 0 at 60000
Create 1 at 56000
Create 2 at 52000
Create 3 at 48000
Create 4 at 44000
Create 0 at 40000
Create 1 at 36000
Create 2 at 32000
Create 3 at 28000
Create 4 at 24000
Create 0 at 20000
Create 1 at 16000
Create 2 at 12000
Create 3 at 8000
Create 4 at 4000
Finished
Finished...
